
 OpenBabel03131016493D

 11 12  0  0  0  0  0  0  0  0999 V2000
   -0.5000    0.8660    0.0000 C   0  0  0  0  0
    0.0000    1.7321    0.0000 C   0  0  0  0  0
    1.0000    1.7321    0.0000 C   0  0  0  0  0
    1.5000    0.8660    0.0000 C   0  0  0  0  0
    1.0000    0.0000    0.0000 C   0  0  0  0  0
    1.5000   -0.8660    0.0000 C   0  0  0  0  0
    1.0000   -1.7321    0.0000 C   0  0  0  0  0
   -0.0000   -1.7321    0.0000 C   0  0  0  0  0
   -0.5000   -0.8660    0.0000 C   0  0  0  0  0
   -0.0000    0.0000    0.0000 C   0  0  0  0  0
   -1.5000    0.8660    0.0000 C   0  0  0  0  0
  2  1  2  0  0  0
 10  1  1  0  0  0
 11  1  1  0  0  0
  3  2  1  0  0  0
  4  3  2  0  0  0
  5  4  1  0  0  0
  6  5  2  0  0  0
 10  5  1  0  0  0
  7  6  1  0  0  0
  8  7  2  0  0  0
  9  8  1  0  0  0
 10  9  2  0  0  0
M  RAD  1  11   2
M  END
