
 OpenBabel06071019163D

 21 21  0  0  0  0  0  0  0  0999 V2000
   -2.8660    0.5000    0.0000 O   0  0  0  0  0
   -2.0000    1.7321    0.0000 O   0  0  0  0  0
   -1.5000    2.5981    0.0000 O   0  0  0  0  0
   -0.5000    0.8660    0.0000 C   0  0  0  0  0
    0.0000    1.7321    0.0000 C   0  0  0  0  0
    1.0000    1.7321    0.0000 C   0  0  0  0  0
    1.5000    0.8660    0.0000 C   0  0  0  0  0
    1.0000    0.0000    0.0000 C   0  0  0  0  0
   -0.0000    0.0000    0.0000 C   0  0  0  0  0
   -1.5000    0.8660    0.0000 C   0  0  0  0  0
   -2.0000    0.0000    0.0000 C   0  0  0  0  0
   -2.5000   -0.8660    0.0000 C   0  0  0  0  0
   -3.5000   -0.8660    0.0000 C   0  0  0  0  0
   -4.0000   -1.7321    0.0000 C   0  0  0  0  0
   -5.0000   -1.7321    0.0000 C   0  0  0  0  0
   -5.5000   -2.5981    0.0000 C   0  0  0  0  0
   -6.5000   -2.5981    0.0000 C   0  0  0  0  0
   -7.0000   -3.4641    0.0000 C   0  0  0  0  0
   -8.0000   -3.4641    0.0000 C   0  0  0  0  0
   -1.1340   -1.5000    0.0000 O   0  0  0  0  0
   -1.1340   -0.5000    0.0000 O   0  0  0  0  0
 11  1  1  0  0  0
  3  2  1  0  0  0
 10  2  1  0  0  0
  5  4  2  0  0  0
  9  4  1  0  0  0
 10  4  1  0  0  0
  6  5  1  0  0  0
  7  6  2  0  0  0
  8  7  1  0  0  0
  9  8  2  0  0  0
 11 10  1  0  0  0
 12 11  1  0  0  0
 21 11  1  0  0  0
 13 12  2  0  0  0
 14 13  1  0  0  0
 15 14  1  0  0  0
 16 15  1  0  0  0
 17 16  1  0  0  0
 18 17  1  0  0  0
 19 18  1  0  0  0
 21 20  1  0  0  0
M  RAD  1   1   2
M  END
