
 OpenBabel06071019163D

 18 17  0  0  0  0  0  0  0  0999 V2000
    0.0000    0.0000    0.0000 C   0  0  0  0  0
    1.0000    0.0000    0.0000 C   0  0  0  0  0
    1.5000   -0.8660    0.0000 C   0  0  0  0  0
    2.5000   -0.8660    0.0000 C   0  0  0  0  0
    3.0000   -1.7321    0.0000 C   0  0  0  0  0
    2.5000   -2.5981    0.0000 C   0  0  0  0  0
    3.0000   -3.4641    0.0000 C   0  0  0  0  0
    2.5000   -4.3301    0.0000 C   0  0  0  0  0
    3.0000   -5.1962    0.0000 C   0  0  0  0  0
    2.5000   -6.0622    0.0000 C   0  0  0  0  0
    3.0000   -6.9282    0.0000 C   0  0  0  0  0
    2.5000   -7.7942    0.0000 C   0  0  0  0  0
    3.0000   -8.6603    0.0000 C   0  0  0  0  0
    2.5000   -9.5263    0.0000 C   0  0  0  0  0
    3.0000  -10.3923    0.0000 C   0  0  0  0  0
    2.5000  -11.2583    0.0000 C   0  0  0  0  0
    4.0000   -0.0000    0.0000 O   0  0  0  0  0
    3.0000   -0.0000    0.0000 O   0  0  0  0  0
  2  1  1  0  0  0
  3  2  1  0  0  0
  4  3  1  0  0  0
  5  4  1  0  0  0
 18  4  1  0  0  0
  6  5  1  0  0  0
  7  6  1  0  0  0
  8  7  1  0  0  0
  9  8  1  0  0  0
 10  9  1  0  0  0
 11 10  1  0  0  0
 12 11  1  0  0  0
 13 12  1  0  0  0
 14 13  1  0  0  0
 15 14  1  0  0  0
 16 15  1  0  0  0
 18 17  1  0  0  0
M  END
