
 OpenBabel06071019163D

 20 20  0  0  0  0  0  0  0  0999 V2000
   -3.0000    0.0000    0.0000 O   0  0  0  0  0
   -3.5000    0.8660    0.0000 O   0  0  0  0  0
   -2.0000    1.7321    0.0000 O   0  0  0  0  0
   -1.5000    2.5981    0.0000 O   0  0  0  0  0
   -0.5000    0.8660    0.0000 C   0  0  0  0  0
    0.0000    1.7321    0.0000 C   0  0  0  0  0
    1.0000    1.7321    0.0000 C   0  0  0  0  0
    1.5000    0.8660    0.0000 C   0  0  0  0  0
    1.0000    0.0000    0.0000 C   0  0  0  0  0
   -0.0000    0.0000    0.0000 C   0  0  0  0  0
   -1.5000    0.8660    0.0000 C   0  0  0  0  0
   -2.0000    0.0000    0.0000 C   0  0  0  0  0
   -1.5000   -0.8660    0.0000 C   0  0  0  0  0
   -2.0000   -1.7321    0.0000 C   0  0  0  0  0
   -1.5000   -2.5981    0.0000 C   0  0  0  0  0
   -2.0000   -3.4641    0.0000 C   0  0  0  0  0
   -1.5000   -4.3301    0.0000 C   0  0  0  0  0
   -2.0000   -5.1962    0.0000 C   0  0  0  0  0
   -1.5000   -6.0622    0.0000 C   0  0  0  0  0
   -2.0000   -6.9282    0.0000 C   0  0  0  0  0
  2  1  1  0  0  0
 12  1  1  0  0  0
  4  3  1  0  0  0
 11  3  1  0  0  0
  6  5  2  0  0  0
 10  5  1  0  0  0
 11  5  1  0  0  0
  7  6  1  0  0  0
  8  7  2  0  0  0
  9  8  1  0  0  0
 10  9  2  0  0  0
 12 11  1  0  0  0
 13 12  2  0  0  0
 14 13  1  0  0  0
 15 14  1  0  0  0
 16 15  1  0  0  0
 17 16  1  0  0  0
 18 17  1  0  0  0
 19 18  1  0  0  0
 20 19  1  0  0  0
M  RAD  1  14   2
M  END
